47   
Rigid scan: atomname C5-C6-C7-C8, serial 17-27-30-34, dihedral 179.653
H       18.8873283660   16.8585375807   18.6214597269
C       19.0064556184   17.6726583165   19.3259678344
H       19.9436113495   17.5539177906   19.8572908929
H       18.1790833113   17.6538525807   20.0233569512
O       18.9981256792   18.8532809558   18.5731747076
C       18.9643823146   20.0209023521   19.2775471374
C       17.6873220912   20.1723128429   20.2920598522
O       16.5803340976   19.7486080763   19.8617427006
O       17.8583114493   20.7076912517   21.4141817728
C       18.9346590144   21.1977029754   18.2692038186
H       17.9530263817   21.2661986987   17.8209776299
H       19.6652849772   20.9771077358   17.4914303855
C       19.2930695152   22.5246051261   18.9615862014
H       18.4715739056   22.7821648824   19.6203184125
O       19.3119646157   23.5799405341   18.0149910594
H       19.7478207847   23.2836275782   17.2282214621
C       20.5164370076   22.5010736928   19.7668727895
H       21.3897937690   22.2940071931   19.1650947554
N       20.7275952243   23.7732026020   20.4386013693
H       20.1435528958   23.9712931899   21.2194456630
C       21.5361123056   24.7484415448   19.9817552195
C       21.6229403057   25.9794531662   20.8668165223
H       22.5202376230   25.9116090723   21.4742509963
H       20.7710852125   26.0931816920   21.5273910307
H       21.7097361389   26.8531643656   20.2353977518
O       22.1771568129   24.6789144384   18.9656944002
C       20.2846498279   21.3777139145   20.8004462201
H       19.4110333859   21.5804118627   21.3790801019
O       20.1446800602   20.1355557102   20.0835552837
C       21.4527040150   21.1790029900   21.7622254369
H       21.5491376974   22.0745632434   22.3690163922
O       22.6788024017   20.9391877702   21.1092180605
H       23.0907027595   21.7686222693   20.9191082216
C       21.1288921814   20.0538879690   22.7522270181
H       20.5209865123   19.3077300267   22.2648456420
O       20.4063393061   20.6710598423   23.7955945924
H       19.7980220901   20.0488666514   24.1670174711
C       22.3626957265   19.3700650588   23.3401520229
H       23.2287637527   20.0105312798   23.3638951305
H       22.1443707563   19.0451372487   24.3496406075
O       22.6421037708   18.2175231029   22.5508335915
C       23.7165183134   17.5139076175   22.8284775471
O       24.4998953232   17.7882164672   23.6842883936
C       23.8221293072   16.2955839482   21.9471830448
H       23.2283516657   15.4981635290   22.3836057030
H       24.8527545456   15.9721734716   21.9021579346
H       23.4403765015   16.5016922437   20.9567906097
